<?xml version="1.0" encoding="UTF-8"?>
<bus_system>
  <routes>
    <route>
      <route_name>市民小巴8(測試線)</route_name>
      <direction>雙向</direction>
      <start_stop>花蓮轉運站</start_stop>
      <end_stop>東華大學</end_stop>
      <status>1</status>
      <stations>
        <station direction="去程">
          <stop_name>花蓮轉運站</stop_name>
          <latitude>23.9930200</latitude>
          <longitude>121.6032190</longitude>
          <stop_order>1</stop_order>
          <eta_from_start>0</eta_from_start>
          <address>花蓮縣花蓮市國聯一路98號</address>
        </station>
        <station direction="去程">
          <stop_name>中央路口</stop_name>
          <latitude>23.9925000</latitude>
          <longitude>121.6045000</longitude>
          <stop_order>2</stop_order>
          <eta_from_start>5</eta_from_start>
          <address>花蓮縣花蓮市中央路</address>
        </station>
        <station direction="去程">
          <stop_name>志學車站</stop_name>
          <latitude>23.9100000</latitude>
          <longitude>121.5500000</longitude>
          <stop_order>3</stop_order>
          <eta_from_start>25</eta_from_start>
          <address>花蓮縣壽豐鄉志學村</address>
        </station>
        <station direction="去程">
          <stop_name>東華大學</stop_name>
          <latitude>23.9020000</latitude>
          <longitude>121.5450000</longitude>
          <stop_order>4</stop_order>
          <eta_from_start>30</eta_from_start>
          <address>花蓮縣壽豐鄉志學村大學路二段1號</address>
        </station>
        <station direction="回程">
          <stop_name>東華大學</stop_name>
          <latitude>23.9020000</latitude>
          <longitude>121.5450000</longitude>
          <stop_order>1</stop_order>
          <eta_from_start>0</eta_from_start>
          <address>花蓮縣壽豐鄉志學村大學路二段1號</address>
        </station>
        <station direction="回程">
          <stop_name>志學車站</stop_name>
          <latitude>23.9100000</latitude>
          <longitude>121.5500000</longitude>
          <stop_order>2</stop_order>
          <eta_from_start>5</eta_from_start>
          <address>花蓮縣壽豐鄉志學村</address>
        </station>
        <station direction="回程">
          <stop_name>中央路口</stop_name>
          <latitude>23.9925000</latitude>
          <longitude>121.6045000</longitude>
          <stop_order>3</stop_order>
          <eta_from_start>25</eta_from_start>
          <address>花蓮縣花蓮市中央路</address>
        </station>
        <station direction="回程">
          <stop_name>花蓮轉運站</stop_name>
          <latitude>23.9930200</latitude>
          <longitude>121.6032190</longitude>
          <stop_order>4</stop_order>
          <eta_from_start>30</eta_from_start>
          <address>花蓮縣花蓮市國聯一路98號</address>
        </station>
      </stations>
    </route>
    <route>
      <route_name>市民小巴9(夜間專線)</route_name>
      <direction>單向</direction>
      <start_stop>花蓮火車站</start_stop>
      <end_stop>花蓮火車站</end_stop>
      <status>1</status>
      <stations>
        <station direction="去程">
          <stop_name>花蓮火車站</stop_name>
          <latitude>23.9933000</latitude>
          <longitude>121.6008000</longitude>
          <stop_order>1</stop_order>
          <eta_from_start>0</eta_from_start>
          <address>花蓮市國聯路100號</address>
        </station>
        <station direction="去程">
          <stop_name>花蓮醫院</stop_name>
          <latitude>23.9850000</latitude>
          <longitude>121.6020000</longitude>
          <stop_order>2</stop_order>
          <eta_from_start>8</eta_from_start>
          <address>花蓮市中央路三段707號</address>
        </station>
        <station direction="去程">
          <stop_name>花蓮文創園區</stop_name>
          <latitude>23.9900000</latitude>
          <longitude>121.6100000</longitude>
          <stop_order>3</stop_order>
          <eta_from_start>15</eta_from_start>
          <address>花蓮市中華路144號</address>
        </station>
      </stations>
    </route>
  </routes>
</bus_system>